Version 4
SHEET 1 880 680
WIRE 112 192 32 192
WIRE 288 208 240 208
WIRE 288 240 240 240
WIRE 288 272 240 272
WIRE 288 304 240 304
FLAG 32 192 IN
IOPIN 32 192 In
FLAG 288 208 D0
IOPIN 288 208 Out
FLAG 288 240 D1
IOPIN 288 240 Out
FLAG 288 272 D2
IOPIN 288 272 Out
FLAG 288 304 D3
IOPIN 288 304 Out
SYMBOL ADC\\can8unip 176 192 R0
SYMATTR SpiceLine Vfsr={FSR}
SYMATTR InstName U1
