Version 4
SHEET 1 880 680
WIRE -160 96 -208 96
WIRE -208 128 -208 96
WIRE -160 128 -208 128
WIRE -208 160 -208 128
WIRE -208 160 -256 160
WIRE -160 160 -208 160
WIRE -208 192 -208 160
WIRE -160 192 -208 192
WIRE 48 208 -32 208
WIRE -160 224 -256 224
WIRE -160 256 -256 256
WIRE 48 272 -32 272
WIRE -160 288 -224 288
WIRE -160 320 -208 320
FLAG -256 256 D1
IOPIN -256 256 In
FLAG -224 288 D2
IOPIN -224 288 In
FLAG -208 320 D3
IOPIN -208 320 In
FLAG 48 272 Vref
IOPIN 48 272 In
FLAG 48 208 OUT
IOPIN 48 208 Out
FLAG -256 160 0
FLAG -256 224 D0
IOPIN -256 224 In
SYMBOL DAC\\cna8unip -96 208 R0
SYMATTR InstName U1
TEXT -352 400 Left 0 !;op
TEXT -216 360 Left 0 !.tran 10m
