Version 4
SHEET 1 2380 1240
WIRE -464 -400 -496 -400
WIRE 48 -400 -464 -400
WIRE 192 -320 192 -336
WIRE -224 -304 -336 -304
WIRE -96 -304 -144 -304
WIRE -32 -304 -96 -304
WIRE 160 -304 -32 -304
WIRE 272 -288 224 -288
WIRE 464 -288 272 -288
WIRE 736 -288 688 -288
WIRE 848 -288 800 -288
WIRE -496 -272 -496 -400
WIRE -336 -272 -336 -304
WIRE 48 -272 48 -400
WIRE 160 -272 48 -272
WIRE 736 -272 704 -272
WIRE -96 -256 -96 -304
WIRE 736 -256 688 -256
WIRE 192 -240 192 -256
WIRE 736 -240 704 -240
WIRE -496 -160 -496 -192
WIRE -336 -160 -336 -192
WIRE 192 -144 192 -160
WIRE 736 -144 688 -144
WIRE -96 -128 -96 -176
WIRE -32 -128 -96 -128
WIRE 160 -128 -32 -128
WIRE 1040 -128 800 -128
WIRE 1200 -128 1104 -128
WIRE -96 -112 -96 -128
WIRE 272 -112 224 -112
WIRE 304 -112 272 -112
WIRE 736 -112 688 -112
WIRE 48 -96 48 -272
WIRE 160 -96 48 -96
WIRE 1040 -96 992 -96
WIRE 192 -64 192 -80
WIRE 304 16 304 -112
WIRE 464 16 416 16
WIRE 192 32 192 16
WIRE 576 32 528 32
WIRE -96 48 -96 -32
WIRE -32 48 -96 48
WIRE 160 48 -32 48
WIRE -304 64 -304 32
WIRE 272 64 224 64
WIRE 464 64 272 64
WIRE 48 80 48 -96
WIRE 160 80 48 80
WIRE -96 96 -96 48
WIRE 192 112 192 96
WIRE 688 144 656 144
WIRE 848 144 800 144
WIRE 992 144 960 144
WIRE -304 176 -304 144
WIRE 192 208 192 192
WIRE -96 224 -96 176
WIRE -32 224 -96 224
WIRE 160 224 -32 224
WIRE 256 240 224 240
WIRE 304 240 256 240
WIRE 48 256 48 80
WIRE 160 256 48 256
WIRE -96 272 -96 224
WIRE 976 272 896 272
WIRE 1136 272 1056 272
WIRE 192 288 192 272
WIRE 976 304 896 304
WIRE 1136 304 1056 304
WIRE 976 336 896 336
WIRE 1136 336 1056 336
WIRE 304 368 304 240
WIRE 432 368 416 368
WIRE 448 368 432 368
WIRE 976 368 928 368
WIRE 1104 368 1056 368
WIRE 192 384 192 368
WIRE 576 384 512 384
WIRE -96 400 -96 352
WIRE -32 400 -96 400
WIRE 160 400 -32 400
WIRE 976 400 928 400
WIRE 1104 400 1056 400
WIRE 272 416 224 416
WIRE 448 416 272 416
WIRE 48 432 48 256
WIRE 160 432 48 432
WIRE 976 432 928 432
WIRE 1104 432 1056 432
WIRE -96 448 -96 400
WIRE 192 464 192 448
WIRE 976 464 928 464
WIRE 1104 464 1056 464
WIRE 976 496 928 496
WIRE 1104 496 1056 496
WIRE 976 528 928 528
WIRE 1104 528 1056 528
WIRE 192 560 192 544
WIRE 976 560 928 560
WIRE 1104 560 1056 560
WIRE -96 576 -96 528
WIRE -32 576 -96 576
WIRE 160 576 -32 576
WIRE 272 592 224 592
WIRE 304 592 272 592
WIRE 48 608 48 432
WIRE 160 608 48 608
WIRE -96 624 -96 576
WIRE 192 640 192 624
WIRE 304 720 304 592
WIRE 448 720 416 720
WIRE 192 736 192 720
WIRE 656 736 512 736
WIRE -96 752 -96 704
WIRE -32 752 -96 752
WIRE 160 752 -32 752
WIRE -96 768 -96 752
WIRE 272 768 224 768
WIRE 448 768 272 768
WIRE 48 784 48 608
WIRE 160 784 48 784
WIRE 192 816 192 800
WIRE -96 896 -96 848
FLAG -96 896 0
FLAG -496 -160 0
FLAG -336 -160 0
FLAG -304 32 v1
FLAG -304 176 0
FLAG 192 -240 0
FLAG 192 -64 0
FLAG 192 112 0
FLAG 192 288 0
FLAG 192 464 0
FLAG 192 640 0
FLAG 192 816 0
FLAG 192 -336 v1
FLAG 192 -160 v1
FLAG 192 16 v1
FLAG 192 192 v1
FLAG 192 368 v1
FLAG 192 544 v1
FLAG 192 720 v1
FLAG -464 -400 Vsig
FLAG -336 -304 Vref
FLAG 656 736 4
FLAG 576 384 5
FLAG 688 -256 5
FLAG 704 -272 6
FLAG 688 -288 s7
FLAG 704 -240 4
FLAG 848 -288 a0
FLAG 272 -288 s7
FLAG 272 -112 s6
FLAG 272 64 s5
FLAG 256 240 s4
FLAG 272 416 s3
FLAG 272 592 s2
FLAG 272 768 s1
FLAG -32 -304 r7
FLAG -32 -128 r6
FLAG -32 48 r5
FLAG -32 224 r4
FLAG -32 400 r3
FLAG -32 576 r2
FLAG -32 752 r1
FLAG 576 32 6
FLAG 432 368 s4b
FLAG 656 144 s4
FLAG 992 144 a2
FLAG 688 -144 s2
FLAG 688 -112 s4b
FLAG 992 -96 s6
FLAG 1200 -128 a1
FLAG 928 560 s1
FLAG 928 528 s2
FLAG 928 496 s3
FLAG 928 464 s4
FLAG 928 432 s5
FLAG 928 400 s6
FLAG 928 368 s7
FLAG 1104 560 s1_
FLAG 1104 528 s2_
FLAG 1104 496 s3_
FLAG 1104 464 s4_
FLAG 1104 432 s5_
FLAG 1104 400 s6_
FLAG 1104 368 s7_
FLAG 896 336 a0
FLAG 896 304 a1
FLAG 896 272 a2
FLAG 1136 336 a0_
FLAG 1136 304 a1_
FLAG 1136 272 a2_
SYMBOL res -240 -288 R270
WINDOW 0 32 56 VTop 0
WINDOW 3 0 56 VBottom 0
SYMATTR InstName R1
SYMATTR Value 2k
SYMBOL res -112 -272 R0
SYMATTR InstName R2
SYMATTR Value 220
SYMBOL res -112 -128 R0
SYMATTR InstName R3
SYMATTR Value 220
SYMBOL res -112 80 R0
SYMATTR InstName R4
SYMATTR Value 220
SYMBOL res -112 256 R0
SYMATTR InstName R5
SYMATTR Value 220
SYMBOL res -112 432 R0
SYMATTR InstName R6
SYMATTR Value 220
SYMBOL res -112 608 R0
SYMATTR InstName R7
SYMATTR Value 220
SYMBOL voltage -496 -288 R0
WINDOW 123 37 74 Left 0
WINDOW 39 0 0 Left 0
WINDOW 3 -33 174 Left 0
SYMATTR Value PULSE(0 2.5 0 .1m 10n 10n .1m)
SYMATTR InstName V1
SYMBOL res -112 752 R0
SYMATTR InstName R11
SYMATTR Value 220
SYMBOL voltage -336 -288 R0
WINDOW 123 0 0 Left 0
WINDOW 39 0 0 Left 0
SYMATTR InstName V2
SYMATTR Value 5
SYMBOL voltage -304 48 R0
WINDOW 123 0 0 Left 0
WINDOW 39 24 132 Left 0
SYMATTR InstName V3
SYMATTR Value 5
SYMBOL Comparators\\LT1721 192 704 R0
SYMATTR InstName U8
SYMBOL Comparators\\LT1721 192 528 R0
SYMATTR InstName U1
SYMBOL Comparators\\LT1721 192 352 R0
SYMATTR InstName U2
SYMBOL Comparators\\LT1721 192 176 R0
SYMATTR InstName U3
SYMBOL Comparators\\LT1721 192 0 R0
SYMATTR InstName U4
SYMBOL Comparators\\LT1721 192 -176 R0
SYMATTR InstName U5
SYMBOL Comparators\\LT1721 192 -352 R0
SYMATTR InstName U6
SYMBOL Digital\\or 768 -336 R0
SYMATTR InstName A3
SYMBOL Digital\\and 480 336 R0
SYMATTR InstName A14
SYMBOL Digital\\and 496 -16 R0
SYMATTR InstName A16
SYMBOL Digital\\and 480 688 R0
SYMATTR InstName A2
SYMBOL Digital\\and 768 -176 R0
SYMATTR InstName A4
SYMBOL Digital\\or 1072 -176 R0
SYMATTR InstName A5
SYMBOL Dig_Add\\dview10 992 416 R0
SYMATTR InstName U7
SYMBOL Dig_Add\\74XX\\HCT\\74hct04 736 80 R0
SYMATTR InstName U9
SYMBOL Dig_Add\\74XX\\HCT\\74hct04 896 80 R0
SYMATTR InstName U10
SYMBOL Dig_Add\\74XX\\HCT\\74hct04 352 -48 R0
SYMATTR InstName U11
SYMBOL Dig_Add\\74XX\\HCT\\74hct04 352 304 R0
SYMATTR InstName U12
SYMBOL Dig_Add\\74XX\\HCT\\74hct04 352 656 R0
SYMATTR InstName U13
TEXT -352 -472 Left 0 !.tran 0.2m
TEXT -352 -448 Left 0 !.options plotwinsize=0
TEXT -48 -464 Left 0 ;Convertisseur analogique-numérique Flash 3 bits
TEXT 648 -424 Left 0 !.options gmin=1e-8
