Version 4
SHEET 1 1108 1252
WIRE -1648 -288 -1664 -288
WIRE -1552 -288 -1568 -288
WIRE -1664 -256 -1664 -288
WIRE -1568 -256 -1568 -288
WIRE -544 -160 -608 -160
WIRE -496 -160 -544 -160
WIRE -272 -160 -304 -160
WIRE -240 -160 -272 -160
WIRE -192 -160 -240 -160
WIRE 32 -160 0 -160
WIRE 96 -160 32 -160
WIRE 128 -160 96 -160
WIRE 352 -160 320 -160
WIRE 400 -160 352 -160
WIRE 464 -160 400 -160
WIRE 688 -160 656 -160
WIRE 752 -160 688 -160
WIRE 784 -160 752 -160
WIRE 1024 -160 976 -160
WIRE -1664 -144 -1664 -176
WIRE -1568 -144 -1568 -176
WIRE -496 -128 -512 -128
WIRE -192 -128 -208 -128
WIRE 128 -128 112 -128
WIRE 464 -128 448 -128
WIRE 784 -128 768 -128
WIRE -1152 -112 -1168 -112
WIRE -1104 -112 -1152 -112
WIRE -720 -96 -736 -96
WIRE -1168 -80 -1168 -112
WIRE -736 -64 -736 -96
WIRE -1168 16 -1168 0
WIRE -736 32 -736 16
WIRE -1008 144 -1024 144
WIRE -960 144 -1008 144
WIRE -816 144 -848 144
WIRE -272 144 -272 -160
WIRE -192 144 -272 144
WIRE 32 144 32 -160
WIRE 112 144 32 144
WIRE 352 144 352 -160
WIRE 432 144 352 144
WIRE 688 144 688 -160
WIRE 768 144 688 144
WIRE -1024 176 -1024 144
WIRE -192 240 -224 240
WIRE 112 240 80 240
WIRE 432 240 400 240
WIRE 768 240 736 240
WIRE -224 256 -224 240
WIRE 80 256 80 240
WIRE 400 256 400 240
WIRE 736 256 736 240
WIRE -1024 272 -1024 256
WIRE -96 368 -96 304
WIRE 208 368 208 304
WIRE 528 368 528 304
WIRE 864 368 864 304
WIRE -848 448 -912 448
WIRE -912 464 -912 448
WIRE -272 480 -272 144
WIRE -112 480 -272 480
WIRE 32 480 32 144
WIRE 192 480 32 480
WIRE 352 480 352 144
WIRE 512 480 352 480
WIRE 688 480 688 144
WIRE 848 480 688 480
WIRE -544 528 -576 528
WIRE -912 560 -912 544
WIRE -544 560 -576 560
WIRE -368 576 -416 576
WIRE -272 576 -368 576
WIRE -544 592 -576 592
WIRE -80 592 -80 480
WIRE -80 592 -208 592
WIRE 224 592 224 480
WIRE 224 592 -80 592
WIRE 544 592 544 480
WIRE 544 592 224 592
WIRE 880 592 880 480
WIRE 880 592 544 592
WIRE -272 608 -304 608
WIRE -544 624 -576 624
WIRE -384 624 -416 624
WIRE -1104 640 -1168 640
WIRE -1168 656 -1168 640
WIRE -1168 752 -1168 736
FLAG -720 -96 V
FLAG -736 32 0
FLAG -1008 144 CK
FLAG -1024 272 0
FLAG -512 -128 CK
FLAG -208 -128 CK
FLAG 112 -128 CK
FLAG 448 -128 CK
FLAG 768 -128 CK
FLAG -192 192 /CK
FLAG 112 192 /CK
FLAG 432 192 /CK
FLAG 768 192 /CK
FLAG -816 144 /CK
FLAG -224 256 0
FLAG 80 256 0
FLAG 400 256 0
FLAG 736 256 0
FLAG -384 624 Vref
FLAG -576 528 Q0
FLAG -576 560 Q1
FLAG -576 592 Q2
FLAG -576 624 Q3
FLAG -1168 752 0
FLAG -1104 640 Vref
FLAG 0 160 Q3
FLAG 304 160 Q2
FLAG 624 160 Q1
FLAG 960 160 Q0
FLAG -240 624 +V
FLAG -240 560 -V
FLAG -304 608 in
FLAG -912 560 0
FLAG -848 448 in
FLAG -96 80 0
FLAG 208 80 0
FLAG 528 80 0
FLAG 864 80 0
FLAG -544 -160 start
FLAG -1152 -112 start
FLAG -1168 16 0
FLAG -1424 208 start
FLAG -240 -160 A
FLAG 96 -160 B
FLAG 400 -160 C
FLAG 752 -160 D
FLAG 1024 -160 E
FLAG -1424 272 A
FLAG -1424 304 B
FLAG -1424 336 C
FLAG -1424 368 D
FLAG -1344 208 start_
FLAG -1344 272 A_
FLAG -1344 304 B_
FLAG -1344 336 C_
FLAG -1344 368 D_
FLAG -1424 400 E
FLAG -1344 400 E_
FLAG -1424 240 CK
FLAG -1344 240 CK_
FLAG -368 576 out
FLAG 880 -16 0
FLAG 560 -16 0
FLAG -400 -240 0
FLAG -400 -16 0
FLAG -96 -240 0
FLAG -96 -16 0
FLAG 224 -240 0
FLAG 224 -16 0
FLAG 560 -240 0
FLAG 880 -240 0
FLAG -1856 240 Q3
FLAG -1856 272 Q2
FLAG -1856 304 Q1
FLAG -1856 336 Q0
FLAG -1776 336 Q0_
FLAG -1776 304 Q1_
FLAG -1776 272 Q2_
FLAG -1776 240 Q3_
FLAG -1664 -144 0
FLAG -1648 -288 +V
FLAG -1568 -144 0
FLAG -1552 -288 -V
SYMBOL voltage -736 -80 R0
WINDOW 123 0 0 Left 0
WINDOW 39 0 0 Left 0
SYMATTR InstName V1
SYMATTR Value 5
SYMBOL voltage -1024 160 R0
WINDOW 123 0 0 Left 0
WINDOW 39 0 0 Left 0
SYMATTR InstName V2
SYMATTR Value PULSE(-3 3 7.5u 30n 30n 5u 10u)
SYMBOL CNA4bits -480 576 R0
SYMATTR InstName X1
SYMBOL voltage -1168 640 R0
WINDOW 123 0 0 Left 0
WINDOW 39 0 0 Left 0
WINDOW 3 59 50 Left 0
SYMATTR InstName V3
SYMATTR Value 5V
SYMBOL voltage -912 448 R0
WINDOW 123 0 0 Left 0
WINDOW 39 0 0 Left 0
WINDOW 3 59 50 Left 0
SYMATTR InstName V4
SYMATTR Value 1.6
SYMBOL Dig_Add\\CD4xxx\\CD4027B -96 80 R0
WINDOW 3 -468 169 Invisible 0
SYMATTR InstName U2
SYMBOL Dig_Add\\CD4xxx\\CD4027B 208 80 R0
WINDOW 3 -750 55 Invisible 0
SYMATTR InstName U3
SYMBOL Dig_Add\\CD4xxx\\CD4027B 528 80 R0
WINDOW 3 -1053 134 Invisible 0
SYMATTR InstName U4
SYMBOL Dig_Add\\CD4xxx\\CD4027B 864 80 R0
WINDOW 3 -1339 95 Invisible 0
SYMATTR InstName U5
SYMBOL Dig_Add\\CD4xxx\\CD4081B -160 432 R270
WINDOW 3 361 -1625 Invisible 0
SYMATTR InstName U6
SYMBOL Dig_Add\\CD4xxx\\CD4081B 144 432 R270
WINDOW 3 323 -1992 Invisible 0
SYMATTR InstName U7
SYMBOL Dig_Add\\CD4xxx\\CD4081B 464 432 R270
WINDOW 3 334 -2224 Invisible 0
SYMATTR InstName U8
SYMBOL Dig_Add\\CD4xxx\\CD4081B 800 432 R270
WINDOW 3 338 -2533 Invisible 0
SYMATTR InstName U9
SYMBOL voltage -1168 -96 R0
WINDOW 123 0 0 Left 0
WINDOW 39 0 0 Left 0
SYMATTR InstName V5
SYMATTR Value PULSE(-3 3 5u 30n 30n 5u 50u)
SYMBOL Dig_Add\\dview10 -1408 352 R0
SYMATTR InstName U10
SYMBOL Dig_Add\\CD4xxx\\CD4013B -400 -240 R0
SYMATTR InstName U11
SYMBOL Dig_Add\\CD4xxx\\CD4013B -96 -240 R0
WINDOW 3 -471 301 Invisible 0
SYMATTR InstName U12
SYMBOL Dig_Add\\CD4xxx\\CD4013B 224 -240 R0
WINDOW 3 -761 332 Invisible 0
SYMATTR InstName U13
SYMBOL Dig_Add\\CD4xxx\\CD4013B 560 -240 R0
WINDOW 3 -1123 526 Invisible 0
SYMATTR InstName U14
SYMBOL Dig_Add\\CD4xxx\\CD4013B 880 -240 R0
WINDOW 3 -1461 423 Invisible 0
SYMATTR InstName U15
SYMBOL Dig_Add\\dview10 -1840 384 R0
SYMATTR InstName U16
SYMBOL Dig_Add\\CD4xxx\\CD4049B -912 80 R0
SYMATTR InstName U17
SYMBOL voltage -1664 -272 R0
WINDOW 123 0 0 Left 0
WINDOW 39 0 0 Left 0
SYMATTR InstName V6
SYMATTR Value 5V
SYMBOL voltage -1568 -272 R0
WINDOW 123 0 0 Left 0
WINDOW 39 0 0 Left 0
SYMATTR InstName V7
SYMATTR Value -5V
SYMBOL Comparators\\comp_ideal -240 592 M180
SYMATTR InstName U18
TEXT -1202 776 Left 0 !.tran 60u
