Version 4
SHEET 1 880 932
WIRE -1184 80 -1216 80
WIRE -1184 112 -1216 112
WIRE -848 128 -880 128
WIRE -688 128 -736 128
WIRE -1184 144 -1216 144
WIRE -1184 176 -1216 176
WIRE -1024 192 -1056 192
WIRE -1184 208 -1216 208
WIRE -800 224 -800 176
WIRE -1184 240 -1216 240
WIRE -1024 256 -1056 256
WIRE -1184 272 -1216 272
WIRE -1184 304 -1216 304
WIRE -2000 384 -2032 384
WIRE -1840 384 -2000 384
WIRE -2000 416 -2032 416
WIRE -1840 416 -2000 416
WIRE -2464 432 -2480 432
WIRE -2192 432 -2464 432
WIRE -2160 432 -2192 432
WIRE -1680 432 -1712 432
WIRE -1616 432 -1680 432
WIRE -2000 448 -2032 448
WIRE -1840 448 -2000 448
WIRE -2480 480 -2480 432
WIRE -2000 480 -2032 480
WIRE -1840 480 -2000 480
WIRE -1680 480 -1712 480
WIRE -1664 480 -1680 480
WIRE -1216 528 -1264 528
WIRE -1664 560 -1664 480
WIRE -1664 560 -1840 560
WIRE -1216 560 -1264 560
WIRE -1392 576 -1520 576
WIRE -2480 592 -2480 560
WIRE -1216 592 -1264 592
WIRE -1216 624 -1264 624
WIRE -1616 656 -1616 432
WIRE -2016 672 -2080 672
WIRE -1840 672 -1840 560
WIRE -1840 672 -2016 672
WIRE -2080 688 -2080 672
WIRE -1664 704 -1840 704
WIRE -1520 704 -1520 576
WIRE -1520 704 -1552 704
WIRE -2080 784 -2080 768
WIRE -2192 896 -2192 432
WIRE -1840 896 -1840 704
WIRE -1840 896 -2192 896
FLAG -2480 592 0
FLAG -1680 480 Vref
FLAG -2080 784 0
FLAG -2016 672 Vref
FLAG -1216 528 a
FLAG -1216 560 b
FLAG -1216 624 d
FLAG -1216 592 c
FLAG -2000 384 e
FLAG -2000 416 f
FLAG -2000 448 g
FLAG -2000 480 h
FLAG -1216 80 a
FLAG -1216 112 b
FLAG -1216 144 c
FLAG -1216 176 d
FLAG -1216 208 e
FLAG -1216 240 f
FLAG -1216 272 g
FLAG -1216 304 h
FLAG -1024 256 Vref
FLAG -880 128 in
FLAG -800 224 out
FLAG -688 128 eps
FLAG -1024 192 out
FLAG -2464 432 in
FLAG -1680 432 out1
SYMBOL CAN4bits -2096 432 R0
WINDOW 39 -41 100 Left 0
SYMATTR SpiceLine FSR= 8V
SYMATTR InstName X1
SYMBOL CNA4bits -1776 432 R0
SYMATTR InstName X2
SYMBOL voltage -2480 464 R0
WINDOW 123 0 0 Left 0
WINDOW 39 0 0 Left 0
SYMATTR InstName V1
SYMATTR Value PULSE(0.02 7.98 0 10u)
SYMBOL voltage -2080 672 R0
WINDOW 123 0 0 Left 0
WINDOW 39 0 0 Left 0
SYMATTR InstName V3
SYMATTR Value 8
SYMBOL SpecialFunctions\\soustracteur -1584 704 M180
SYMATTR InstName U1
SYMBOL CAN4bits -1328 576 R0
WINDOW 39 -48 106 Left 0
SYMATTR SpiceLine FSR= 0.5V
SYMATTR InstName X3
SYMBOL DAC\\cna8unip -1120 192 R0
SYMATTR InstName U3
SYMBOL SpecialFunctions\\soustracteur -768 128 R0
SYMATTR InstName U4
TEXT -2512 616 Left 0 !.tran 0 10u 0
TEXT -2448 -56 Left 0 !.options abstol=1e-13
TEXT -2440 -24 Left 0 !.options reltol=1e-6
TEXT -2440 -632 Left 0 ;Le signal d'entrée.
TEXT -2536 -600 Left 0 ;Une rampe de temps de montée 10us
TEXT -1032 336 Left 0 ;Pour les vérifications finales.
RECTANGLE Normal -592 384 -1248 0
