Version 4
SHEET 1 880 680
WIRE 224 80 224 48
WIRE 224 80 176 80
WIRE 288 80 224 80
WIRE 176 96 176 80
WIRE 288 96 288 80
WIRE 128 128 96 128
WIRE 240 128 224 128
WIRE 128 192 128 128
WIRE 160 192 128 192
WIRE 224 192 224 128
WIRE 176 240 176 176
WIRE 288 240 288 176
FLAG 96 128 C
IOPIN 96 128 In
FLAG 224 48 X
IOPIN 224 48 BiDir
FLAG 176 240 A
IOPIN 176 240 BiDir
FLAG 288 240 B
IOPIN 288 240 BiDir
SYMBOL sw_all 176 80 R0
SYMATTR InstName U1
SYMBOL sw_all 288 80 R0
SYMATTR InstName U2
SYMBOL Digital\\inv 160 128 R0
SYMATTR InstName A1
