Version 4
SHEET 1 880 680
WIRE -496 -80 -528 -80
WIRE -384 -80 -416 -80
WIRE -160 -80 -160 -144
WIRE -160 -80 -176 -80
WIRE -496 -48 -528 -48
WIRE -384 -48 -416 -48
WIRE -176 -48 -176 -80
WIRE -160 -48 -176 -48
WIRE -496 -16 -528 -16
WIRE -384 -16 -416 -16
WIRE -176 -16 -176 -48
WIRE -160 -16 -176 -16
WIRE -496 16 -528 16
WIRE -384 16 -416 16
WIRE -176 16 -176 -16
WIRE -160 16 -176 16
WIRE -496 48 -528 48
WIRE -384 48 -416 48
WIRE -160 48 -192 48
WIRE -160 144 -176 144
WIRE -320 160 -336 160
WIRE -176 176 -176 144
WIRE -160 176 -176 176
WIRE -336 192 -336 160
WIRE -512 208 -560 208
WIRE -176 208 -176 176
WIRE -160 208 -176 208
WIRE -176 240 -176 208
WIRE -160 240 -176 240
WIRE -560 256 -560 208
WIRE -336 304 -336 272
WIRE -176 336 -176 240
WIRE -560 368 -560 336
FLAG -528 -48 a
FLAG -528 -16 b
FLAG -528 16 c
FLAG -528 48 d
FLAG -384 -48 [a
FLAG -384 -16 [b
FLAG -384 16 [c
FLAG -384 48 [d
FLAG -528 -80 CLK
FLAG -384 -80 [CLK
FLAG -176 336 0
FLAG 64 144 a
FLAG 64 176 b
FLAG 64 208 c
FLAG -160 -144 Vcc
FLAG -192 48 CLK
FLAG 64 240 d
FLAG -560 368 0
FLAG -512 208 CLK
FLAG -336 304 0
FLAG -320 160 Vcc
SYMBOL Dig_Add\\dview5 -480 64 R0
SYMATTR InstName U1
SYMBOL Dig_Add\\74XX\\HC&U\\74hc161 -48 -160 R0
SYMATTR InstName U2
SYMBOL voltage -560 240 R0
WINDOW 123 0 0 Left 0
WINDOW 39 0 0 Left 0
WINDOW 3 8 110 Left 0
SYMATTR InstName V1
SYMATTR Value PULSE(0 5 1m 10n 10n .5m 1m)
SYMBOL voltage -336 176 R0
WINDOW 3 24 104 Invisible 0
WINDOW 123 0 0 Left 0
WINDOW 39 0 0 Left 0
SYMATTR Value 5
SYMATTR InstName V2
TEXT -330 -160 Left 0 !.tran 16m
