Version 4
SHEET 1 932 680
WIRE -1072 -368 -1088 -368
WIRE -896 -368 -912 -368
WIRE -1088 -336 -1088 -368
WIRE -912 -336 -912 -368
WIRE -784 -320 -784 -336
WIRE 0 -320 -32 -320
WIRE 288 -320 256 -320
WIRE 400 -320 368 -320
WIRE 288 -288 256 -288
WIRE 400 -288 368 -288
WIRE 288 -256 256 -256
WIRE 400 -256 368 -256
WIRE -1088 -224 -1088 -256
WIRE -912 -224 -912 -256
WIRE -784 -224 -784 -240
WIRE 0 -224 0 -240
WIRE 64 -224 0 -224
WIRE 288 -224 256 -224
WIRE 400 -224 368 -224
WIRE 288 -192 256 -192
WIRE 400 -192 368 -192
WIRE 0 -128 0 -144
WIRE 64 -128 0 -128
WIRE 0 -32 0 -48
WIRE 64 -32 0 -32
WIRE -512 32 -512 -32
WIRE -512 32 -528 32
WIRE -528 64 -528 32
WIRE -512 64 -528 64
WIRE 0 64 0 48
WIRE 64 64 0 64
WIRE 576 64 528 64
WIRE 784 64 736 64
WIRE -528 96 -528 64
WIRE -512 96 -528 96
WIRE 576 96 512 96
WIRE 784 96 736 96
WIRE -528 128 -528 96
WIRE -512 128 -528 128
WIRE 576 128 432 128
WIRE 816 128 736 128
WIRE -992 144 -1040 144
WIRE -512 160 -544 160
WIRE 0 160 0 144
WIRE 64 160 0 160
WIRE 576 160 496 160
WIRE 880 160 736 160
WIRE -1040 192 -1040 144
WIRE 576 192 496 192
WIRE 816 192 736 192
WIRE 576 224 496 224
WIRE 816 224 736 224
WIRE -512 256 -528 256
WIRE 0 256 0 240
WIRE 64 256 0 256
WIRE 576 256 496 256
WIRE 816 256 736 256
WIRE -528 288 -528 256
WIRE -512 288 -528 288
WIRE 576 288 464 288
WIRE 816 288 736 288
WIRE -1040 304 -1040 272
WIRE -528 320 -528 288
WIRE -512 320 -528 320
WIRE -528 352 -528 320
WIRE -512 352 -528 352
WIRE 0 352 0 336
WIRE 64 352 0 352
WIRE -528 448 -528 352
WIRE 0 448 0 432
WIRE 64 448 0 448
WIRE 0 464 0 448
FLAG -912 -224 0
FLAG 0 464 0
FLAG -896 -368 Vref
FLAG -32 -320 Vref
FLAG 64 352 V1
FLAG 64 256 V2
FLAG 64 160 V3
FLAG 64 64 V4
FLAG 64 -32 V5
FLAG 64 -128 V6
FLAG 64 -224 V7
FLAG -1040 304 0
FLAG -784 -224 0
FLAG -784 -336 O
FLAG 816 128 0
FLAG 880 160 +V
FLAG 512 96 EN
FLAG 464 288 X
FLAG 496 192 V1
FLAG 496 224 V2
FLAG 496 256 V3
FLAG 816 192 V4
FLAG 816 224 V5
FLAG 816 256 V6
FLAG 496 160 V0
FLAG 432 128 -V
FLAG 816 288 V7
FLAG 528 64 a
FLAG 784 64 b
FLAG 784 96 c
FLAG -592 -224 0
FLAG -448 -224 0
FLAG -592 -304 +V
FLAG -448 -304 -V
FLAG 64 448 V0
FLAG -1088 -224 0
FLAG -1072 -368 Vcc
FLAG -528 448 0
FLAG -288 256 a
FLAG -288 288 b
FLAG -288 320 c
FLAG -512 -32 Vcc
FLAG -992 144 CLK
FLAG -544 160 CLK
FLAG -832 64 0
FLAG -832 -16 EN
FLAG -288 352 d
FLAG 256 -288 a
FLAG 256 -256 b
FLAG 256 -224 c
FLAG 256 -192 d
FLAG 400 -288 [a
FLAG 400 -256 [b
FLAG 400 -224 [c
FLAG 400 -192 [d
FLAG 256 -320 CLK
FLAG 400 -320 [CLK
SYMBOL res -16 336 R0
SYMATTR InstName R1
SYMATTR Value 1k
SYMBOL res -16 240 R0
SYMATTR InstName R2
SYMATTR Value 1k
SYMBOL res -16 144 R0
SYMATTR InstName R3
SYMATTR Value 1k
SYMBOL res -16 48 R0
SYMATTR InstName R4
SYMATTR Value 1k
SYMBOL res -16 -48 R0
SYMATTR InstName R5
SYMATTR Value 1k
SYMBOL res -16 -144 R0
SYMATTR InstName R6
SYMATTR Value 1k
SYMBOL res -16 -240 R0
SYMATTR InstName R7
SYMATTR Value 1k
SYMBOL res -16 -336 R0
SYMATTR InstName R8
SYMATTR Value 1k
SYMBOL voltage -912 -352 R0
WINDOW 3 24 104 Invisible 0
WINDOW 123 0 0 Left 0
WINDOW 39 0 0 Left 0
SYMATTR Value 8
SYMATTR InstName V1
SYMBOL voltage -1040 176 R0
WINDOW 123 0 0 Left 0
WINDOW 39 0 0 Left 0
WINDOW 3 8 110 Left 0
SYMATTR Value PULSE(0 5 1m 10n 10n .5m 1m)
SYMATTR InstName V2
SYMBOL voltage -784 -336 R0
SYMATTR InstName V4
SYMATTR Value 0
SYMBOL ADG408 656 176 R0
SYMATTR InstName U2
SYMBOL voltage -592 -320 R0
WINDOW 123 0 0 Left 0
WINDOW 39 24 132 Left 0
SYMATTR InstName V3
SYMATTR Value 15
SYMBOL voltage -448 -320 R0
WINDOW 123 0 0 Left 0
WINDOW 39 24 132 Left 0
SYMATTR InstName V5
SYMATTR Value -15
SYMBOL voltage -1088 -352 R0
WINDOW 3 24 104 Invisible 0
WINDOW 123 0 0 Left 0
WINDOW 39 0 0 Left 0
SYMATTR Value 5
SYMATTR InstName V6
SYMBOL Dig_Add\\74XX\\HC&U\\74hc161 -400 -48 R0
SYMATTR InstName U3
SYMBOL voltage -832 -32 R0
WINDOW 123 0 0 Left 0
WINDOW 39 0 0 Left 0
SYMATTR InstName V7
SYMATTR Value 5
SYMBOL Dig_Add\\dview5 304 -176 R0
SYMATTR InstName U1
TEXT 64 608 Left 0 !.tran 8m
TEXT 536 424 Left 0 !.include adg408.cir
