Version 4
SHEET 1 936 680
WIRE -1136 -336 -1152 -336
WIRE -928 -336 -944 -336
WIRE -816 -336 -832 -336
WIRE -608 -336 -624 -336
WIRE -192 -336 -224 -336
WIRE -80 -336 -112 -336
WIRE -1152 -304 -1152 -336
WIRE -944 -304 -944 -336
WIRE -832 -304 -832 -336
WIRE -624 -304 -624 -336
WIRE -192 -304 -224 -304
WIRE -80 -304 -112 -304
WIRE -192 -272 -224 -272
WIRE -80 -272 -112 -272
WIRE -192 -240 -224 -240
WIRE -80 -240 -112 -240
WIRE -192 -208 -224 -208
WIRE -80 -208 -112 -208
WIRE -1152 -192 -1152 -224
WIRE -944 -192 -944 -224
WIRE -832 -192 -832 -224
WIRE -624 -192 -624 -224
WIRE -672 -112 -832 -112
WIRE -624 -112 -672 -112
WIRE -496 -112 -544 -112
WIRE -448 -112 -496 -112
WIRE -336 -112 -368 -112
WIRE -288 -112 -336 -112
WIRE -160 -112 -208 -112
WIRE -64 -112 -160 -112
WIRE -672 -80 -672 -112
WIRE -496 -80 -496 -112
WIRE -336 -80 -336 -112
WIRE -160 -80 -160 -112
WIRE -64 -80 -64 -112
WIRE -832 -64 -832 -112
WIRE -64 32 -64 0
WIRE -1360 48 -1360 -16
WIRE -1360 48 -1376 48
WIRE -832 48 -832 16
WIRE -672 48 -672 0
WIRE -496 48 -496 0
WIRE -336 48 -336 0
WIRE -160 48 -160 0
WIRE -1376 80 -1376 48
WIRE -1360 80 -1376 80
WIRE -704 96 -736 96
WIRE -528 96 -560 96
WIRE -368 96 -400 96
WIRE -192 96 -224 96
WIRE -1376 112 -1376 80
WIRE -1360 112 -1376 112
WIRE -1376 144 -1376 112
WIRE -1360 144 -1376 144
WIRE -32 144 -64 144
WIRE 80 144 48 144
WIRE -1360 176 -1392 176
WIRE -656 176 -656 144
WIRE -480 176 -480 144
WIRE -320 176 -320 144
WIRE -144 176 -144 144
WIRE 16 192 0 192
WIRE 0 224 0 192
WIRE -688 240 -688 144
WIRE -512 240 -512 144
WIRE -512 240 -688 240
WIRE -352 240 -352 144
WIRE -352 240 -512 240
WIRE -176 240 -176 144
WIRE -176 240 -352 240
WIRE -64 240 -64 144
WIRE -64 240 -176 240
WIRE -32 240 -64 240
WIRE 80 256 80 144
WIRE 80 256 32 256
WIRE 144 256 80 256
WIRE -1360 272 -1376 272
WIRE -32 272 -64 272
WIRE -1376 304 -1376 272
WIRE -1360 304 -1376 304
WIRE 0 320 0 288
WIRE 16 320 0 320
WIRE -1376 336 -1376 304
WIRE -1360 336 -1376 336
WIRE -64 336 -64 272
WIRE -1376 368 -1376 336
WIRE -1360 368 -1376 368
WIRE -1376 464 -1376 368
FLAG -656 176 0
FLAG -480 176 0
FLAG -320 176 0
FLAG -832 48 0
FLAG -144 176 0
FLAG -64 32 0
FLAG -64 336 0
FLAG -832 -192 0
FLAG -944 -192 0
FLAG -928 -336 +V
FLAG 16 192 +V
FLAG -816 -336 -V
FLAG 16 320 -V
FLAG -1376 464 0
FLAG -1136 272 a
FLAG -1136 304 b
FLAG -1136 336 c
FLAG -1360 -16 Vcc
FLAG -1392 176 CLK
FLAG -1136 368 d
FLAG -736 96 d
FLAG -560 96 c
FLAG -400 96 b
FLAG -224 96 a
FLAG -1152 -192 0
FLAG -1136 -336 Vcc
FLAG -624 -192 0
FLAG -608 -336 CLK
FLAG -224 -336 a
FLAG -224 -304 b
FLAG -224 -272 c
FLAG -224 -240 d
FLAG -80 -336 [a
FLAG -80 -304 [b
FLAG -80 -272 [c
FLAG -80 -240 [d
FLAG -224 -208 CLK
FLAG -80 -208 [CLK
SYMBOL res -688 -96 R0
SYMATTR InstName R1
SYMATTR Value 20k
SYMBOL res -528 -128 R90
WINDOW 0 0 56 VBottom 0
WINDOW 3 32 56 VTop 0
SYMATTR InstName R2
SYMATTR Value 10k
SYMBOL res -512 -96 R0
SYMATTR InstName R3
SYMATTR Value 20k
SYMBOL res -352 -96 R0
SYMATTR InstName R5
SYMATTR Value 20k
SYMBOL biswitch -672 96 R0
WINDOW 0 0 -56 Bottom 0
SYMATTR InstName X1
SYMBOL biswitch -496 96 R0
WINDOW 0 0 -56 Bottom 0
SYMATTR InstName X2
SYMBOL biswitch -336 96 R0
WINDOW 0 0 -56 Bottom 0
SYMATTR InstName X3
SYMBOL voltage -832 -80 R0
WINDOW 123 0 0 Left 0
WINDOW 39 0 0 Left 0
SYMATTR InstName V3
SYMATTR Value -8V
SYMBOL res -352 -128 R90
WINDOW 0 0 56 VBottom 0
WINDOW 3 32 56 VTop 0
SYMATTR InstName R4
SYMATTR Value 10k
SYMBOL res -192 -128 R90
WINDOW 0 0 56 VBottom 0
WINDOW 3 32 56 VTop 0
SYMATTR InstName R6
SYMATTR Value 10k
SYMBOL res -176 -96 R0
SYMATTR InstName R7
SYMATTR Value 20k
SYMBOL biswitch -160 96 R0
WINDOW 0 0 -56 Bottom 0
SYMATTR InstName X4
SYMBOL res -80 -96 R0
SYMATTR InstName R8
SYMATTR Value 20k
SYMBOL OpAmp.Add\\TL082 0 192 R0
SYMATTR InstName U1
SYMBOL res 64 128 R90
WINDOW 0 0 56 VBottom 0
WINDOW 3 32 56 VTop 0
SYMATTR InstName R9
SYMATTR Value 10k
SYMBOL voltage -944 -320 R0
WINDOW 123 0 0 Left 0
WINDOW 39 0 0 Left 0
SYMATTR InstName V1
SYMATTR Value 15
SYMBOL voltage -832 -208 M180
WINDOW 0 25 93 Left 0
WINDOW 3 16 7 Left 0
WINDOW 123 0 0 Left 0
WINDOW 39 0 0 Left 0
SYMATTR InstName V2
SYMATTR Value 15
SYMBOL Dig_Add\\74XX\\HC&U\\74hc161 -1248 -32 R0
SYMATTR InstName U2
SYMBOL voltage -1152 -320 R0
WINDOW 123 0 0 Left 0
WINDOW 39 0 0 Left 0
SYMATTR InstName V4
SYMATTR Value 5
SYMBOL voltage -624 -320 R0
WINDOW 123 0 0 Left 0
WINDOW 39 0 0 Left 0
WINDOW 3 -7 104 Left 0
SYMATTR Value PULSE(0 5 1m 10n 10n .5m 1m)
SYMATTR InstName V5
SYMBOL Dig_Add\\dview5 -176 -192 R0
SYMATTR InstName U3
TEXT -1400 -344 Left 0 !.tran 16m
TEXT -1464 488 Left 0 !;op
TEXT -784 480 Left 0 !.options gmin=1e-10
TEXT -800 448 Left 0 ;Cette option permet d'assurer une convergence plus rapide.
TEXT -824 512 Left 0 ;http://ltwiki.org/index.php5?title=Convergence_problems%3F&oldid=528
