Version 4
SHEET 1 1096 680
WIRE 80 -32 48 -32
WIRE 48 0 48 -32
WIRE 368 16 304 16
WIRE 448 32 432 32
WIRE 464 32 448 32
WIRE 368 48 336 48
WIRE 752 48 688 48
WIRE 688 80 688 48
WIRE 48 96 48 80
WIRE 48 96 -16 96
WIRE 48 112 48 96
WIRE -16 128 -16 96
WIRE 336 128 336 48
WIRE 352 128 336 128
WIRE 448 128 448 32
WIRE 448 128 432 128
WIRE 336 160 336 128
WIRE 688 192 688 160
WIRE 48 208 48 192
WIRE 80 208 48 208
WIRE 336 272 336 240
FLAG 400 64 Vee
FLAG 80 -32 Vcc
FLAG 80 208 Vee
FLAG -16 128 0
FLAG 688 192 0
FLAG 752 48 IN
IOPIN 752 48 Out
FLAG 304 16 IN
IOPIN 304 16 In
FLAG 464 32 OUT
IOPIN 464 32 Out
FLAG 336 272 0
FLAG 400 0 Vcc
SYMBOL OpAmp.Add\\TL082 400 -32 R0
WINDOW 3 382 205 Left 0
SYMATTR InstName U1
SYMBOL voltage 48 -16 R0
WINDOW 3 -22 54 Left 0
WINDOW 123 0 0 Left 0
WINDOW 39 0 0 Left 0
SYMATTR Value 12V
SYMATTR InstName V1
SYMBOL voltage 48 96 R0
WINDOW 3 -23 60 Left 0
WINDOW 123 0 0 Left 0
WINDOW 39 0 0 Left 0
SYMATTR Value 12V
SYMATTR InstName V2
SYMBOL voltage 688 64 R0
WINDOW 3 24 44 Left 0
WINDOW 39 0 0 Left 0
SYMATTR Value PULSE(-12 12 0 5m 5m 0 10m)
SYMATTR InstName V3
SYMATTR Value2 AC 1
SYMBOL res 352 256 R180
WINDOW 0 36 76 Left 0
WINDOW 3 36 40 Left 0
SYMATTR InstName R1
SYMATTR Value 10k
SYMBOL res 448 112 R90
WINDOW 0 62 52 VBottom 0
WINDOW 3 58 14 VTop 0
SYMATTR InstName R2
SYMATTR Value 10k
TEXT 248 328 Left 0 !.tran 20m
