Version 4
SHEET 1 1180 680
WIRE 80 -32 48 -32
WIRE 48 0 48 -32
WIRE 368 16 320 16
WIRE 464 32 432 32
WIRE 368 48 336 48
WIRE 752 48 688 48
WIRE 336 64 336 48
WIRE 688 80 688 48
WIRE 48 96 48 80
WIRE 48 96 -16 96
WIRE 240 96 224 96
WIRE 336 96 336 64
WIRE 336 96 320 96
WIRE 48 112 48 96
WIRE 336 112 336 96
WIRE -16 128 -16 96
WIRE 688 192 688 160
WIRE 48 208 48 192
WIRE 80 208 48 208
WIRE 336 224 336 192
FLAG 336 224 0
FLAG 400 64 Vcc
FLAG 400 0 Vee
FLAG 80 -32 Vcc
FLAG 80 208 Vee
FLAG -16 128 0
FLAG 688 192 0
FLAG 752 48 IN
IOPIN 752 48 Out
FLAG 320 16 IN
IOPIN 320 16 In
FLAG 224 96 Vcc
FLAG 464 32 OUT
IOPIN 464 32 Out
FLAG 336 64 mesure
SYMBOL OpAmp.Add\\TL082 400 96 M180
WINDOW 3 16 198 Left 0
SYMATTR InstName U1
SYMBOL res 320 96 R0
SYMATTR InstName R1
SYMATTR Value 100k
SYMBOL res 336 80 R90
WINDOW 0 0 56 VBottom 0
WINDOW 3 32 56 VTop 0
SYMATTR InstName R2
SYMATTR Value 100k
SYMBOL voltage 48 -16 R0
WINDOW 3 -22 54 Left 0
WINDOW 123 0 0 Left 0
WINDOW 39 0 0 Left 0
SYMATTR Value 12V
SYMATTR InstName V1
SYMBOL voltage 48 96 R0
WINDOW 3 -23 60 Left 0
WINDOW 123 0 0 Left 0
WINDOW 39 0 0 Left 0
SYMATTR Value 12V
SYMATTR InstName V2
SYMBOL voltage 688 64 R0
WINDOW 3 24 44 Left 0
WINDOW 39 0 0 Left 0
SYMATTR Value PULSE(-12 12 0 5ms 5ms 0 10ms 10)
SYMATTR InstName V3
SYMATTR Value2 AC 1
TEXT 248 328 Left 0 !.tran 20ms
